11261 3-METHYL-2-PENTANOL from www.chemspider.com
  Marvin  12300703363D          

 21 20  0  0  1  0            999 V2000
    1.8600   -1.7395   -0.0485 O   0  0  0  0  0  0  0  0  0  0  0  0
   -0.1986   -0.3971    0.0575 C   0  0  2  0  0  0  0  0  0  0  0  0
    1.3651   -0.3984   -0.0458 C   0  0  2  0  0  0  0  0  0  0  0  0
   -0.8208    1.0375    0.0343 C   0  0  0  0  0  0  0  0  0  0  0  0
   -0.6779   -1.2129    1.2958 C   0  0  0  0  0  0  0  0  0  0  0  0
    1.9765    0.2884   -1.2931 C   0  0  0  0  0  0  0  0  0  0  0  0
   -2.3635    1.1367   -0.0060 C   0  0  0  0  0  0  0  0  0  0  0  0
   -0.5731   -0.9246   -0.8266 H   0  0  0  0  0  0  0  0  0  0  0  0
    1.7779    0.0888    0.8420 H   0  0  0  0  0  0  0  0  0  0  0  0
   -0.4571    1.6067    0.8941 H   0  0  0  0  0  0  0  0  0  0  0  0
   -0.4879    1.5649   -0.8596 H   0  0  0  0  0  0  0  0  0  0  0  0
   -0.2663   -2.2232    1.2998 H   0  0  0  0  0  0  0  0  0  0  0  0
   -0.3805   -0.7224    2.2250 H   0  0  0  0  0  0  0  0  0  0  0  0
   -1.7606   -1.3355    1.3035 H   0  0  0  0  0  0  0  0  0  0  0  0
    3.0632    0.1856   -1.2948 H   0  0  0  0  0  0  0  0  0  0  0  0
    1.5878   -0.1596   -2.2102 H   0  0  0  0  0  0  0  0  0  0  0  0
    1.7660    1.3579   -1.3096 H   0  0  0  0  0  0  0  0  0  0  0  0
   -2.6702    2.1808   -0.0944 H   0  0  0  0  0  0  0  0  0  0  0  0
   -2.7594    0.5906   -0.8648 H   0  0  0  0  0  0  0  0  0  0  0  0
   -2.8163    0.7420    0.9039 H   0  0  0  0  0  0  0  0  0  0  0  0
    2.8357   -1.6667   -0.0025 H   0  0  0  0  0  0  0  0  0  0  0  0
  1  3  1  0  0  0  0
  1 21  1  0  0  0  0
  2  3  1  0  0  0  0
  2  4  1  0  0  0  0
  2  5  1  0  0  0  0
  2  8  1  0  0  0  0
  3  6  1  0  0  0  0
  3  9  1  0  0  0  0
  4  7  1  0  0  0  0
  4 10  1  0  0  0  0
  4 11  1  0  0  0  0
  5 12  1  0  0  0  0
  5 13  1  0  0  0  0
  5 14  1  0  0  0  0
  6 15  1  0  0  0  0
  6 16  1  0  0  0  0
  6 17  1  0  0  0  0
  7 18  1  0  0  0  0
  7 19  1  0  0  0  0
  7 20  1  0  0  0  0
M  END
> <PUBCHEM_BONDANNOTATIONS>
3  1  3
2  5  3

$$$$
