23238 SEC-BUTYL METHYL ETHER from www.chemspider.com
  Marvin  12300703363D          

 18 17  0  0  1  0            999 V2000
    1.1378   -0.3047    0.0595 O   0  0  0  0  0  0  0  0  0  0  0  0
   -0.3054   -0.2446    0.0655 C   0  0  2  0  0  0  0  0  0  0  0  0
   -0.7482    1.2447   -0.0238 C   0  0  0  0  0  0  0  0  0  0  0  0
   -0.9191   -0.9263    1.3152 C   0  0  0  0  0  0  0  0  0  0  0  0
   -0.2571    1.9964   -1.2796 C   0  0  0  0  0  0  0  0  0  0  0  0
    1.7743   -1.5906   -0.0458 C   0  0  0  0  0  0  0  0  0  0  0  0
   -0.6919   -0.7494   -0.8258 H   0  0  0  0  0  0  0  0  0  0  0  0
   -1.8412    1.2969   -0.0216 H   0  0  0  0  0  0  0  0  0  0  0  0
   -0.3986    1.7853    0.8599 H   0  0  0  0  0  0  0  0  0  0  0  0
   -2.0066   -0.8276    1.3248 H   0  0  0  0  0  0  0  0  0  0  0  0
   -0.5158   -0.4805    2.2264 H   0  0  0  0  0  0  0  0  0  0  0  0
   -0.6994   -1.9938    1.3282 H   0  0  0  0  0  0  0  0  0  0  0  0
   -0.6333    3.0225   -1.2737 H   0  0  0  0  0  0  0  0  0  0  0  0
   -0.6165    1.5068   -2.1865 H   0  0  0  0  0  0  0  0  0  0  0  0
    0.8324    2.0354   -1.3079 H   0  0  0  0  0  0  0  0  0  0  0  0
    2.8492   -1.4392   -0.1461 H   0  0  0  0  0  0  0  0  0  0  0  0
    1.4242   -2.1430   -0.9196 H   0  0  0  0  0  0  0  0  0  0  0  0
    1.6153   -2.1883    0.8509 H   0  0  0  0  0  0  0  0  0  0  0  0
  1  2  1  0  0  0  0
  1  6  1  0  0  0  0
  2  3  1  0  0  0  0
  2  4  1  0  0  0  0
  2  7  1  0  0  0  0
  3  5  1  0  0  0  0
  3  8  1  0  0  0  0
  3  9  1  0  0  0  0
  4 10  1  0  0  0  0
  4 11  1  0  0  0  0
  4 12  1  0  0  0  0
  5 13  1  0  0  0  0
  5 14  1  0  0  0  0
  5 15  1  0  0  0  0
  6 16  1  0  0  0  0
  6 17  1  0  0  0  0
  6 18  1  0  0  0  0
M  END
> <PUBCHEM_BONDANNOTATIONS>
2  4  3

$$$$
