SITOSTEROL 22012 from www.chemspider.com
  Marvin  12300703363D          

 80 83  0  0  1  0            999 V2000
   -3.0262   -5.4565    5.5473 O   0  0  0  0  0  0  0  0  0  0  0  0
   -0.4210   -0.6831   -0.5243 C   0  0  1  0  0  0  0  0  0  0  0  0
   -1.5798   -0.6432    0.5293 C   0  0  2  0  0  0  0  0  0  0  0  0
   -2.3023   -2.0093    0.7458 C   0  0  1  0  0  0  0  0  0  0  0  0
   -1.2894   -3.0977    1.2581 C   0  0  1  0  0  0  0  0  0  0  0  0
    0.0292    0.8212   -0.4594 C   0  0  2  0  0  0  0  0  0  0  0  0
    0.6044   -1.7390    0.0218 C   0  0  0  0  0  0  0  0  0  0  0  0
   -2.0102   -4.4808    1.5769 C   0  0  2  0  0  0  0  0  0  0  0  0
   -2.4040    0.6086    0.1748 C   0  0  0  0  0  0  0  0  0  0  0  0
   -0.0155   -3.1275    0.3425 C   0  0  0  0  0  0  0  0  0  0  0  0
   -1.3197    1.5970   -0.2972 C   0  0  0  0  0  0  0  0  0  0  0  0
   -3.5384   -1.8825    1.6776 C   0  0  0  0  0  0  0  0  0  0  0  0
    1.0103    1.4383   -1.5248 C   0  0  1  0  0  0  0  0  0  0  0  0
   -0.8659   -1.0596   -1.9849 C   0  0  0  0  0  0  0  0  0  0  0  0
   -3.2669   -4.2585    2.3593 C   0  0  0  0  0  0  0  0  0  0  0  0
   -1.0330   -5.4582    2.3620 C   0  0  0  0  0  0  0  0  0  0  0  0
   -3.9407   -3.0896    2.3624 C   0  0  0  0  0  0  0  0  0  0  0  0
   -2.4330   -5.1963    0.2434 C   0  0  0  0  0  0  0  0  0  0  0  0
   -3.7813   -5.3548    3.1960 C   0  0  0  0  0  0  0  0  0  0  0  0
    1.3222    2.9249   -1.1600 C   0  0  0  0  0  0  0  0  0  0  0  0
   -1.2585   -5.5367    3.8917 C   0  0  0  0  0  0  0  0  0  0  0  0
   -2.7348   -5.8909    4.2189 C   0  0  1  0  0  0  0  0  0  0  0  0
    2.3342    0.6324   -1.6939 C   0  0  0  0  0  0  0  0  0  0  0  0
    2.1210    3.7749   -2.1803 C   0  0  0  0  0  0  0  0  0  0  0  0
    2.5189    5.2262   -1.7520 C   0  0  2  0  0  0  0  0  0  0  0  0
    3.3017    5.9858   -2.8921 C   0  0  1  0  0  0  0  0  0  0  0  0
    3.2274    5.2545   -0.3496 C   0  0  0  0  0  0  0  0  0  0  0  0
    2.6259    5.9561   -4.2976 C   0  0  0  0  0  0  0  0  0  0  0  0
    3.6393    7.4642   -2.5431 C   0  0  0  0  0  0  0  0  0  0  0  0
    4.5512    4.4619   -0.2189 C   0  0  0  0  0  0  0  0  0  0  0  0
   -1.1627   -0.4103    1.5221 H   0  0  0  0  0  0  0  0  0  0  0  0
   -2.6953   -2.3243   -0.2225 H   0  0  0  0  0  0  0  0  0  0  0  0
   -0.9234   -2.7322    2.2256 H   0  0  0  0  0  0  0  0  0  0  0  0
    0.5597    0.9399    0.4950 H   0  0  0  0  0  0  0  0  0  0  0  0
    1.4156   -1.9196   -0.6821 H   0  0  0  0  0  0  0  0  0  0  0  0
    1.0831   -1.3653    0.9321 H   0  0  0  0  0  0  0  0  0  0  0  0
   -2.9602    0.9987    1.0325 H   0  0  0  0  0  0  0  0  0  0  0  0
   -3.1233    0.3927   -0.6195 H   0  0  0  0  0  0  0  0  0  0  0  0
    0.7852   -3.7154    0.7932 H   0  0  0  0  0  0  0  0  0  0  0  0
   -0.2421   -3.6102   -0.6079 H   0  0  0  0  0  0  0  0  0  0  0  0
   -1.2134    2.4016    0.4379 H   0  0  0  0  0  0  0  0  0  0  0  0
   -1.6438    2.0552   -1.2357 H   0  0  0  0  0  0  0  0  0  0  0  0
   -4.3872   -1.5074    1.0963 H   0  0  0  0  0  0  0  0  0  0  0  0
   -3.3443   -1.1496    2.4658 H   0  0  0  0  0  0  0  0  0  0  0  0
    0.5074    1.4369   -2.4962 H   0  0  0  0  0  0  0  0  0  0  0  0
   -1.5956   -0.3603   -2.3950 H   0  0  0  0  0  0  0  0  0  0  0  0
   -0.0212   -1.0645   -2.6728 H   0  0  0  0  0  0  0  0  0  0  0  0
   -1.3122   -2.0497   -2.0575 H   0  0  0  0  0  0  0  0  0  0  0  0
    0.0209   -5.2223    2.2227 H   0  0  0  0  0  0  0  0  0  0  0  0
   -1.1175   -6.4897    2.0053 H   0  0  0  0  0  0  0  0  0  0  0  0
   -4.7806   -2.9942    2.8883 H   0  0  0  0  0  0  0  0  0  0  0  0
   -3.0952   -4.5919   -0.3771 H   0  0  0  0  0  0  0  0  0  0  0  0
   -1.5687   -5.4671   -0.3642 H   0  0  0  0  0  0  0  0  0  0  0  0
   -2.9591   -6.1355    0.4240 H   0  0  0  0  0  0  0  0  0  0  0  0
   -4.6998   -5.1155    3.7420 H   0  0  0  0  0  0  0  0  0  0  0  0
   -4.0801   -6.1619    2.5240 H   0  0  0  0  0  0  0  0  0  0  0  0
    1.8338    2.8912   -0.1989 H   0  0  0  0  0  0  0  0  0  0  0  0
    0.3997    3.4895   -1.0062 H   0  0  0  0  0  0  0  0  0  0  0  0
   -0.9968   -4.5665    4.3238 H   0  0  0  0  0  0  0  0  0  0  0  0
   -0.5893   -6.2785    4.3388 H   0  0  0  0  0  0  0  0  0  0  0  0
   -2.8302   -6.9807    4.2455 H   0  0  0  0  0  0  0  0  0  0  0  0
    3.0024    1.0620   -2.4370 H   0  0  0  0  0  0  0  0  0  0  0  0
    2.8771    0.5639   -0.7483 H   0  0  0  0  0  0  0  0  0  0  0  0
    2.1588   -0.3678   -2.0753 H   0  0  0  0  0  0  0  0  0  0  0  0
    1.4835    3.8005   -3.0668 H   0  0  0  0  0  0  0  0  0  0  0  0
    3.0412    3.2714   -2.4702 H   0  0  0  0  0  0  0  0  0  0  0  0
    1.5743    5.7638   -1.6148 H   0  0  0  0  0  0  0  0  0  0  0  0
   -2.9285   -4.4812    5.5295 H   0  0  0  0  0  0  0  0  0  0  0  0
    4.2602    5.4757   -3.0258 H   0  0  0  0  0  0  0  0  0  0  0  0
    3.4127    6.2791   -0.0293 H   0  0  0  0  0  0  0  0  0  0  0  0
    2.5471    4.8993    0.4268 H   0  0  0  0  0  0  0  0  0  0  0  0
    3.1919    6.5328   -5.0319 H   0  0  0  0  0  0  0  0  0  0  0  0
    1.6121    6.3592   -4.2526 H   0  0  0  0  0  0  0  0  0  0  0  0
    2.5796    4.9463   -4.7078 H   0  0  0  0  0  0  0  0  0  0  0  0
    4.1732    7.9576   -3.3573 H   0  0  0  0  0  0  0  0  0  0  0  0
    2.7281    8.0293   -2.3357 H   0  0  0  0  0  0  0  0  0  0  0  0
    4.3004    7.5392   -1.6802 H   0  0  0  0  0  0  0  0  0  0  0  0
    4.9392    4.5395    0.7982 H   0  0  0  0  0  0  0  0  0  0  0  0
    4.4089    3.4013   -0.4326 H   0  0  0  0  0  0  0  0  0  0  0  0
    5.3092    4.8531   -0.8981 H   0  0  0  0  0  0  0  0  0  0  0  0
  1 22  1  0  0  0  0
  1 68  1  0  0  0  0
  2  3  1  0  0  0  0
  2  6  1  0  0  0  0
  2  7  1  0  0  0  0
  2 14  1  0  0  0  0
  3  4  1  0  0  0  0
  3  9  1  0  0  0  0
  3 31  1  0  0  0  0
  4  5  1  0  0  0  0
  4 12  1  0  0  0  0
  4 32  1  0  0  0  0
  5  8  1  0  0  0  0
  5 10  1  0  0  0  0
  5 33  1  0  0  0  0
  6 11  1  0  0  0  0
  6 13  1  0  0  0  0
  6 34  1  0  0  0  0
  7 10  1  0  0  0  0
  7 35  1  0  0  0  0
  7 36  1  0  0  0  0
  8 15  1  0  0  0  0
  8 16  1  0  0  0  0
  8 18  1  0  0  0  0
  9 11  1  0  0  0  0
  9 37  1  0  0  0  0
  9 38  1  0  0  0  0
 10 39  1  0  0  0  0
 10 40  1  0  0  0  0
 11 41  1  0  0  0  0
 11 42  1  0  0  0  0
 12 17  1  0  0  0  0
 12 43  1  0  0  0  0
 12 44  1  0  0  0  0
 13 20  1  0  0  0  0
 13 23  1  0  0  0  0
 13 45  1  0  0  0  0
 14 46  1  0  0  0  0
 14 47  1  0  0  0  0
 14 48  1  0  0  0  0
 15 17  2  0  0  0  0
 15 19  1  0  0  0  0
 16 21  1  0  0  0  0
 16 49  1  0  0  0  0
 16 50  1  0  0  0  0
 17 51  1  0  0  0  0
 18 52  1  0  0  0  0
 18 53  1  0  0  0  0
 18 54  1  0  0  0  0
 19 22  1  0  0  0  0
 19 55  1  0  0  0  0
 19 56  1  0  0  0  0
 20 24  1  0  0  0  0
 20 57  1  0  0  0  0
 20 58  1  0  0  0  0
 21 22  1  0  0  0  0
 21 59  1  0  0  0  0
 21 60  1  0  0  0  0
 22 61  1  0  0  0  0
 23 62  1  0  0  0  0
 23 63  1  0  0  0  0
 23 64  1  0  0  0  0
 25 24  1  0  0  0  0
 24 65  1  0  0  0  0
 24 66  1  0  0  0  0
 25 26  1  0  0  0  0
 25 27  1  0  0  0  0
 25 67  1  0  0  0  0
 26 28  1  0  0  0  0
 26 29  1  0  0  0  0
 26 69  1  0  0  0  0
 27 30  1  0  0  0  0
 27 70  1  0  0  0  0
 27 71  1  0  0  0  0
 28 72  1  0  0  0  0
 28 73  1  0  0  0  0
 28 74  1  0  0  0  0
 29 75  1  0  0  0  0
 29 76  1  0  0  0  0
 29 77  1  0  0  0  0
 30 78  1  0  0  0  0
 30 79  1  0  0  0  0
 30 80  1  0  0  0  0
M  END
> <PUBCHEM_BONDANNOTATIONS>
22  1  3
13  23  6
2  14  5
25  24  5
3  31  6
4  32  5
5  33  6
6  34  6
8  18  5

$$$$
