11264 2-METHYL-3-PENTANOL from www.chemspider.com
  Marvin  12300703363D          

 21 20  0  0  1  0            999 V2000
   -0.9201   -1.0023    1.2885 O   0  0  0  0  0  0  0  0  0  0  0  0
    1.1154   -0.3539    0.0777 C   0  0  1  0  0  0  0  0  0  0  0  0
   -0.4475   -0.2935    0.1400 C   0  0  2  0  0  0  0  0  0  0  0  0
   -1.0820    1.1271    0.1625 C   0  0  0  0  0  0  0  0  0  0  0  0
    1.6493   -1.8142    0.1365 C   0  0  0  0  0  0  0  0  0  0  0  0
    1.7263    0.3733   -1.1539 C   0  0  0  0  0  0  0  0  0  0  0  0
   -2.6274    1.1548    0.1657 C   0  0  0  0  0  0  0  0  0  0  0  0
    1.5007    0.1551    0.9671 H   0  0  0  0  0  0  0  0  0  0  0  0
   -0.8418   -0.8245   -0.7307 H   0  0  0  0  0  0  0  0  0  0  0  0
   -0.7190    1.6731    1.0375 H   0  0  0  0  0  0  0  0  0  0  0  0
   -0.7718    1.6857   -0.7222 H   0  0  0  0  0  0  0  0  0  0  0  0
    1.3159   -2.3248    1.0416 H   0  0  0  0  0  0  0  0  0  0  0  0
    2.7413   -1.8365    0.1474 H   0  0  0  0  0  0  0  0  0  0  0  0
    1.3062   -2.3916   -0.7249 H   0  0  0  0  0  0  0  0  0  0  0  0
    2.8150    0.2892   -1.1648 H   0  0  0  0  0  0  0  0  0  0  0  0
    1.3421   -0.0470   -2.0860 H   0  0  0  0  0  0  0  0  0  0  0  0
    1.5052    1.4408   -1.1404 H   0  0  0  0  0  0  0  0  0  0  0  0
   -2.9844    2.1865    0.1551 H   0  0  0  0  0  0  0  0  0  0  0  0
   -3.0220    0.6494   -0.7181 H   0  0  0  0  0  0  0  0  0  0  0  0
   -3.0287    0.6678    1.0560 H   0  0  0  0  0  0  0  0  0  0  0  0
   -0.5725   -0.5146    2.0652 H   0  0  0  0  0  0  0  0  0  0  0  0
  1  3  1  0  0  0  0
  1 21  1  0  0  0  0
  2  3  1  0  0  0  0
  2  5  1  0  0  0  0
  2  6  1  0  0  0  0
  2  8  1  0  0  0  0
  3  4  1  0  0  0  0
  3  9  1  0  0  0  0
  4  7  1  0  0  0  0
  4 10  1  0  0  0  0
  4 11  1  0  0  0  0
  5 12  1  0  0  0  0
  5 13  1  0  0  0  0
  5 14  1  0  0  0  0
  6 15  1  0  0  0  0
  6 16  1  0  0  0  0
  6 17  1  0  0  0  0
  7 18  1  0  0  0  0
  7 19  1  0  0  0  0
  7 20  1  0  0  0  0
M  END
> <PUBCHEM_BONDANNOTATIONS>
3  1  3

$$$$
