11262 3-METHYL-2-PENTANONE from www.chemspider.com
  Marvin  12300703363D          

 19 18  0  0  1  0            999 V2000
   -2.2421    1.3966   -0.3902 O   0  0  0  0  0  0  0  0  0  0  0  0
   -0.5606   -0.1763   -0.1928 C   0  0  1  0  0  0  0  0  0  0  0  0
    0.9896   -0.3675   -0.2521 C   0  0  0  0  0  0  0  0  0  0  0  0
   -1.1971   -0.8961    1.0320 C   0  0  0  0  0  0  0  0  0  0  0  0
   -1.0348    1.2129   -0.2878 C   0  0  0  0  0  0  0  0  0  0  0  0
    1.5569   -1.8061   -0.3090 C   0  0  0  0  0  0  0  0  0  0  0  0
   -0.2529    2.4398   -0.2627 C   0  0  0  0  0  0  0  0  0  0  0  0
   -0.9522   -0.6807   -1.0833 H   0  0  0  0  0  0  0  0  0  0  0  0
    1.3639    0.1307   -1.1508 H   0  0  0  0  0  0  0  0  0  0  0  0
    1.4432    0.1223    0.6130 H   0  0  0  0  0  0  0  0  0  0  0  0
   -2.2879   -0.8281    1.0223 H   0  0  0  0  0  0  0  0  0  0  0  0
   -0.8372   -0.4669    1.9694 H   0  0  0  0  0  0  0  0  0  0  0  0
   -0.9702   -1.9633    1.0346 H   0  0  0  0  0  0  0  0  0  0  0  0
    2.6447   -1.7661   -0.4014 H   0  0  0  0  0  0  0  0  0  0  0  0
    1.1597   -2.3477   -1.1682 H   0  0  0  0  0  0  0  0  0  0  0  0
    1.3303   -2.3619    0.6006 H   0  0  0  0  0  0  0  0  0  0  0  0
   -0.5041    3.0239    0.6246 H   0  0  0  0  0  0  0  0  0  0  0  0
   -0.4741    3.0407   -1.1477 H   0  0  0  0  0  0  0  0  0  0  0  0
    0.8247    2.2939   -0.2507 H   0  0  0  0  0  0  0  0  0  0  0  0
  1  5  2  0  0  0  0
  2  3  1  0  0  0  0
  2  4  1  0  0  0  0
  2  5  1  0  0  0  0
  2  8  1  0  0  0  0
  3  6  1  0  0  0  0
  3  9  1  0  0  0  0
  3 10  1  0  0  0  0
  4 11  1  0  0  0  0
  4 12  1  0  0  0  0
  4 13  1  0  0  0  0
  5  7  1  0  0  0  0
  6 14  1  0  0  0  0
  6 15  1  0  0  0  0
  6 16  1  0  0  0  0
  7 17  1  0  0  0  0
  7 18  1  0  0  0  0
  7 19  1  0  0  0  0
M  END
> <PUBCHEM_BONDANNOTATIONS>
2  4  3

$$$$
