CAMPESTEROL 173183 from www.chemspider.com
  Marvin  01010819303D          

 77 80  0  0  1  0            999 V2000
   -2.7190   -7.0741    4.4017 O   0  0  0  0  0  0  0  0  0  0  0  0
   -0.2162   -0.4853   -0.5300 C   0  0  1  0  0  0  0  0  0  0  0  0
   -1.3796   -0.4483    0.5206 C   0  0  2  0  0  0  0  0  0  0  0  0
   -2.0980   -1.8124    0.7401 C   0  0  1  0  0  0  0  0  0  0  0  0
   -1.0873   -2.8992    1.2610 C   0  0  1  0  0  0  0  0  0  0  0  0
    0.2316    1.0185   -0.4611 C   0  0  2  0  0  0  0  0  0  0  0  0
    0.8071   -1.5398    0.0248 C   0  0  0  0  0  0  0  0  0  0  0  0
   -1.8103   -4.2789    1.5757 C   0  0  2  0  0  0  0  0  0  0  0  0
   -2.2086    0.7975    0.1554 C   0  0  0  0  0  0  0  0  0  0  0  0
    0.1911   -2.9278    0.3480 C   0  0  0  0  0  0  0  0  0  0  0  0
   -1.1223    1.7887   -0.3091 C   0  0  0  0  0  0  0  0  0  0  0  0
   -3.3376   -1.6840    1.6713 C   0  0  0  0  0  0  0  0  0  0  0  0
    1.2271    1.6423   -1.5126 C   0  0  1  0  0  0  0  0  0  0  0  0
   -0.6600   -0.8596   -1.9912 C   0  0  0  0  0  0  0  0  0  0  0  0
   -3.0675   -4.0564    2.3596 C   0  0  0  0  0  0  0  0  0  0  0  0
   -0.8403   -5.2651    2.3597 C   0  0  0  0  0  0  0  0  0  0  0  0
   -3.7395   -2.8870    2.3597 C   0  0  0  0  0  0  0  0  0  0  0  0
   -2.2436   -4.9830    0.2390 C   0  0  0  0  0  0  0  0  0  0  0  0
   -3.5795   -5.1537    3.1905 C   0  0  0  0  0  0  0  0  0  0  0  0
   -1.0620   -5.3450    3.8903 C   0  0  0  0  0  0  0  0  0  0  0  0
    1.5465    3.1246   -1.1286 C   0  0  0  0  0  0  0  0  0  0  0  0
   -2.5428   -5.6680    4.2328 C   0  0  2  0  0  0  0  0  0  0  0  0
    2.5405    0.8269   -1.7073 C   0  0  0  0  0  0  0  0  0  0  0  0
    2.4156    3.9677   -2.0983 C   0  0  0  0  0  0  0  0  0  0  0  0
    2.7036    5.4592   -1.7227 C   0  0  2  0  0  0  0  0  0  0  0  0
    3.5259    6.2029   -2.8459 C   0  0  1  0  0  0  0  0  0  0  0  0
    3.3568    5.5449   -0.3057 C   0  0  0  0  0  0  0  0  0  0  0  0
    2.8890    6.1495   -4.2693 C   0  0  0  0  0  0  0  0  0  0  0  0
    3.8620    7.6875   -2.5215 C   0  0  0  0  0  0  0  0  0  0  0  0
   -0.9679   -0.2097    1.5141 H   0  0  0  0  0  0  0  0  0  0  0  0
   -2.4873   -2.1292   -0.2288 H   0  0  0  0  0  0  0  0  0  0  0  0
   -0.7244   -2.5313    2.2291 H   0  0  0  0  0  0  0  0  0  0  0  0
    0.7537    1.1362    0.4978 H   0  0  0  0  0  0  0  0  0  0  0  0
    1.2782   -1.1623    0.9375 H   0  0  0  0  0  0  0  0  0  0  0  0
    1.6237   -1.7171   -0.6741 H   0  0  0  0  0  0  0  0  0  0  0  0
   -2.9210    0.5721   -0.6427 H   0  0  0  0  0  0  0  0  0  0  0  0
   -2.7760    1.1824    1.0076 H   0  0  0  0  0  0  0  0  0  0  0  0
   -0.0320   -3.4143   -0.6008 H   0  0  0  0  0  0  0  0  0  0  0  0
    0.9900   -3.5128    0.8054 H   0  0  0  0  0  0  0  0  0  0  0  0
   -1.0261    2.5927    0.4276 H   0  0  0  0  0  0  0  0  0  0  0  0
   -1.4424    2.2456   -1.2494 H   0  0  0  0  0  0  0  0  0  0  0  0
   -4.1843   -1.3104    1.0863 H   0  0  0  0  0  0  0  0  0  0  0  0
   -3.1428   -0.9485    2.4564 H   0  0  0  0  0  0  0  0  0  0  0  0
    0.7249    1.6553   -2.4842 H   0  0  0  0  0  0  0  0  0  0  0  0
   -1.3972   -0.1652   -2.3976 H   0  0  0  0  0  0  0  0  0  0  0  0
    0.1816   -0.8508   -2.6829 H   0  0  0  0  0  0  0  0  0  0  0  0
   -1.0980   -1.8532   -2.0685 H   0  0  0  0  0  0  0  0  0  0  0  0
   -0.9374   -6.2942    2.0010 H   0  0  0  0  0  0  0  0  0  0  0  0
    0.2149   -5.0382    2.2154 H   0  0  0  0  0  0  0  0  0  0  0  0
   -4.5804   -2.7912    2.8867 H   0  0  0  0  0  0  0  0  0  0  0  0
   -2.9064   -4.3711   -0.3740 H   0  0  0  0  0  0  0  0  0  0  0  0
   -1.3844   -5.2529   -0.3755 H   0  0  0  0  0  0  0  0  0  0  0  0
   -2.7760   -5.9193    0.4121 H   0  0  0  0  0  0  0  0  0  0  0  0
   -3.8622   -5.9610    2.5122 H   0  0  0  0  0  0  0  0  0  0  0  0
   -4.5027   -4.9226    3.7330 H   0  0  0  0  0  0  0  0  0  0  0  0
   -0.3917   -6.0866    4.3361 H   0  0  0  0  0  0  0  0  0  0  0  0
   -0.7895   -4.3787    4.3247 H   0  0  0  0  0  0  0  0  0  0  0  0
    0.6178    3.6908   -1.0281 H   0  0  0  0  0  0  0  0  0  0  0  0
    2.0161    3.0973   -0.1450 H   0  0  0  0  0  0  0  0  0  0  0  0
   -2.7553   -5.2251    5.2103 H   0  0  0  0  0  0  0  0  0  0  0  0
    3.1928    1.2625   -2.4621 H   0  0  0  0  0  0  0  0  0  0  0  0
    3.1008    0.7476   -0.7732 H   0  0  0  0  0  0  0  0  0  0  0  0
    2.3560   -0.1708   -2.0922 H   0  0  0  0  0  0  0  0  0  0  0  0
    1.8779    3.9170   -3.0463 H   0  0  0  0  0  0  0  0  0  0  0  0
    3.3837    3.4875   -2.2413 H   0  0  0  0  0  0  0  0  0  0  0  0
    1.7359    5.9643   -1.6405 H   0  0  0  0  0  0  0  0  0  0  0  0
   -3.6598   -7.1832    4.6594 H   0  0  0  0  0  0  0  0  0  0  0  0
    4.4895    5.6904   -2.9308 H   0  0  0  0  0  0  0  0  0  0  0  0
    4.2982    4.9922   -0.2726 H   0  0  0  0  0  0  0  0  0  0  0  0
    3.5477    6.5679    0.0116 H   0  0  0  0  0  0  0  0  0  0  0  0
    2.7027    5.1516    0.4727 H   0  0  0  0  0  0  0  0  0  0  0  0
    3.4645    6.7267   -4.9957 H   0  0  0  0  0  0  0  0  0  0  0  0
    1.8692    6.5394   -4.2582 H   0  0  0  0  0  0  0  0  0  0  0  0
    2.8686    5.1368   -4.6724 H   0  0  0  0  0  0  0  0  0  0  0  0
    4.4021    8.1678   -3.3400 H   0  0  0  0  0  0  0  0  0  0  0  0
    2.9522    8.2595   -2.3297 H   0  0  0  0  0  0  0  0  0  0  0  0
    4.5198    7.7738   -1.6569 H   0  0  0  0  0  0  0  0  0  0  0  0
 22  1  1  0  0  0  0
  1 67  1  0  0  0  0
  2  3  1  0  0  0  0
  2  6  1  0  0  0  0
  2  7  1  0  0  0  0
  2 14  1  0  0  0  0
  3  4  1  0  0  0  0
  3  9  1  0  0  0  0
  3 30  1  0  0  0  0
  4  5  1  0  0  0  0
  4 12  1  0  0  0  0
  4 31  1  0  0  0  0
  5  8  1  0  0  0  0
  5 10  1  0  0  0  0
  5 32  1  0  0  0  0
  6 11  1  0  0  0  0
  6 13  1  0  0  0  0
  6 33  1  0  0  0  0
  7 10  1  0  0  0  0
  7 34  1  0  0  0  0
  7 35  1  0  0  0  0
  8 15  1  0  0  0  0
  8 16  1  0  0  0  0
  8 18  1  0  0  0  0
  9 11  1  0  0  0  0
  9 36  1  0  0  0  0
  9 37  1  0  0  0  0
 10 38  1  0  0  0  0
 10 39  1  0  0  0  0
 11 40  1  0  0  0  0
 11 41  1  0  0  0  0
 12 17  1  0  0  0  0
 12 42  1  0  0  0  0
 12 43  1  0  0  0  0
 13 21  1  0  0  0  0
 13 23  1  0  0  0  0
 13 44  1  0  0  0  0
 14 45  1  0  0  0  0
 14 46  1  0  0  0  0
 14 47  1  0  0  0  0
 15 17  2  0  0  0  0
 15 19  1  0  0  0  0
 16 20  1  0  0  0  0
 16 48  1  0  0  0  0
 16 49  1  0  0  0  0
 17 50  1  0  0  0  0
 18 51  1  0  0  0  0
 18 52  1  0  0  0  0
 18 53  1  0  0  0  0
 19 22  1  0  0  0  0
 19 54  1  0  0  0  0
 19 55  1  0  0  0  0
 20 22  1  0  0  0  0
 20 56  1  0  0  0  0
 20 57  1  0  0  0  0
 21 24  1  0  0  0  0
 21 58  1  0  0  0  0
 21 59  1  0  0  0  0
 22 60  1  0  0  0  0
 23 61  1  0  0  0  0
 23 62  1  0  0  0  0
 23 63  1  0  0  0  0
 24 25  1  0  0  0  0
 24 64  1  0  0  0  0
 24 65  1  0  0  0  0
 25 26  1  0  0  0  0
 25 27  1  0  0  0  0
 25 66  1  0  0  0  0
 26 28  1  0  0  0  0
 26 29  1  0  0  0  0
 26 68  1  0  0  0  0
 27 69  1  0  0  0  0
 27 70  1  0  0  0  0
 27 71  1  0  0  0  0
 28 72  1  0  0  0  0
 28 73  1  0  0  0  0
 28 74  1  0  0  0  0
 29 75  1  0  0  0  0
 29 76  1  0  0  0  0
 29 77  1  0  0  0  0
M  END
> <PUBCHEM_BONDANNOTATIONS>
22  1  5
13  23  6
2  14  5
25  27  6
3  30  6
4  31  5
5  32  6
6  33  6
8  18  5

$$$$
